Version 4
SHEET 1 1724 680
WIRE 1392 -48 144 -48
WIRE 1648 -48 1392 -48
WIRE 1392 0 1392 -48
WIRE 1536 16 1424 16
WIRE 1648 48 1648 -48
WIRE 1184 80 1104 80
WIRE 1344 80 1264 80
WIRE 1104 96 1104 80
WIRE 1392 192 1392 112
WIRE 1648 192 1648 128
WIRE 1648 192 1392 192
WIRE 144 208 144 -48
WIRE 144 208 -224 208
WIRE 1104 208 1104 176
WIRE 1392 208 1392 192
WIRE 1392 208 1104 208
WIRE 1392 256 1392 208
WIRE 1536 272 1536 16
WIRE 1536 272 1424 272
WIRE -224 288 -224 208
WIRE 1536 304 1536 272
WIRE 1232 336 1184 336
WIRE 1344 336 1312 336
WIRE 1184 352 1184 336
WIRE -224 464 -224 368
WIRE -192 464 -224 464
WIRE 1184 464 1184 432
WIRE 1184 464 -192 464
WIRE 1392 464 1392 368
WIRE 1392 464 1184 464
WIRE -192 544 -192 464
FLAG -192 544 0
FLAG 1536 384 0
SYMBOL nmos_TO247_3L 1344 256 R0
WINDOW 3 -31 -28 Left 2
SYMATTR Value C3M0065090D
SYMATTR InstName U1
SYMBOL voltage -224 272 R0
WINDOW 123 0 0 Left 0
WINDOW 39 0 0 Left 0
SYMATTR InstName V1
SYMATTR Value 100
SYMBOL voltage 1184 336 R0
WINDOW 3 -150 105 Left 2
WINDOW 123 0 0 Left 0
WINDOW 39 0 0 Left 0
SYMATTR Value PWL(500u 0 500.1u 15 750u 15 750.1u 0)
SYMATTR InstName V2
SYMBOL voltage 1536 288 R0
WINDOW 123 0 0 Left 0
WINDOW 39 0 0 Left 0
SYMATTR InstName V3
SYMATTR Value 100
SYMBOL ind 1632 32 R0
SYMATTR InstName L1
SYMATTR Value 1m
SYMBOL res 1328 320 R90
WINDOW 0 0 56 VBottom 2
WINDOW 3 32 56 VTop 2
SYMATTR InstName R1
SYMATTR Value 3
SYMBOL nmos_TO247_3L 1344 0 R0
WINDOW 3 -31 -28 Left 2
SYMATTR Value C3M0065090D
SYMATTR InstName U2
SYMBOL voltage 1104 80 R0
WINDOW 3 -164 107 Left 2
WINDOW 123 0 0 Left 0
WINDOW 39 0 0 Left 0
SYMATTR Value PWL(750u 0 750.1u 15)
SYMATTR InstName V4
SYMBOL res 1280 64 R90
WINDOW 0 0 56 VBottom 2
WINDOW 3 32 56 VTop 2
SYMATTR InstName R2
SYMATTR Value 3
TEXT -1224 440 Left 2 !.lib "C:\\Users\\Acer\\Documents\\LTspiceXVII\\lib\\C3M0065090D.lib"
TEXT -256 568 Left 2 !.tran 10m
